/*--------------------------------*- C++ -*----------------------------------*\
| =========                 |                                                 |
| \\      /  F ield         | OpenFOAM: The Open Source CFD Toolbox           |
|  \\    /   O peration     | Version:  2.3.1                                 |
|   \\  /    A nd           | Web:      www.OpenFOAM.org                      |
|    \\/     M anipulation  |                                                 |
\*---------------------------------------------------------------------------*/
FoamFile
{
    version     2.0;
    format      ascii;
    class       extendedFeatureEdgeMesh;
    location    "constant/extendedFeatureEdgeMesh";
    object      wingMirror.extendedFeatureEdgeMesh;
}
// * * * * * * * * * * * * * * * * * * * * * * * * * * * * * * * * * * * * * //

// points

578
(
(20.0218 9.0462 1)
(20.0218 9.0462 0)
(18.9333 10.5926 0)
(18.9333 10.5926 1)
(21.0706 8.90462 1)
(21.0706 8.90462 0)
(19.2329 11.997 0)
(19.2329 11.997 1)
(1.04529e-06 -2.61419e-06 0)
(1.04529e-06 -2.61419e-06 1)
(19.0375 10.7571 0)
(19.0375 10.7571 1)
(4.01848 9.58573 1)
(4.01295 9.63242 1)
(4.01295 9.63242 0)
(4.01848 9.58573 0)
(4.03476 9.54161 0)
(4.03476 9.54161 1)
(4.06088 9.50252 0)
(4.06088 9.50252 1)
(4.09541 9.4706 0)
(4.13644 9.44763 0)
(4.18169 9.43488 0)
(4.22868 9.43304 0)
(4.22868 9.43304 1)
(4.18169 9.43488 1)
(4.09541 9.4706 1)
(4.13644 9.44763 1)
(4.01295 9.63735 0)
(4.01295 9.63735 1)
(4.14917 9.8269 1)
(4.1979 9.83678 1)
(4.1979 9.83678 0)
(4.14917 9.8269 0)
(4.10438 9.80531 0)
(4.10438 9.80531 1)
(4.06631 9.77334 0)
(4.06631 9.77334 1)
(4.03729 9.73297 0)
(4.01913 9.68668 0)
(4.01913 9.68668 1)
(4.03729 9.73297 1)
(18.916 10.9476 0)
(18.916 10.9476 1)
(19.5315 10.8535 0)
(19.3319 10.9159 0)
(19.3319 10.9159 1)
(19.5315 10.8535 1)
(19.1251 10.9475 0)
(19.1251 10.9475 1)
(19.7482 10.7396 1)
(19.8465 10.6664 1)
(19.8465 10.6664 0)
(19.7482 10.7396 0)
(19.6428 10.8022 0)
(19.6428 10.8022 1)
(20.1119 10.2236 1)
(20.1468 10.0534 1)
(20.1468 10.0534 0)
(20.1119 10.2236 0)
(20.049 10.3855 0)
(20.049 10.3855 1)
(19.9597 10.5345 0)
(19.9597 10.5345 1)
(20.0947 9.29127 1)
(20.0947 9.29127 0)
(20.1401 9.54289 0)
(20.1401 9.54289 1)
(20.1576 9.79799 0)
(20.1576 9.79799 1)
(19.5453 10.4354 0)
(19.7146 10.2895 0)
(19.7146 10.2895 1)
(19.5453 10.4354 1)
(19.8557 10.1162 0)
(19.9641 9.92085 0)
(20.0366 9.70947 0)
(20.0709 9.48866 0)
(20.0659 9.26526 0)
(20.0659 9.26526 1)
(20.0709 9.48866 1)
(19.8557 10.1162 1)
(19.9641 9.92085 1)
(20.0366 9.70947 1)
(18.9218 10.5919 1)
(18.916 10.5914 1)
(18.916 10.5914 0)
(18.9218 10.5919 0)
(18.9275 10.5923 0)
(18.9275 10.5923 1)
(21.1245 9.16777 1)
(21.1245 9.16777 0)
(21.1642 9.43342 0)
(21.1642 9.43342 1)
(21.1896 9.7008 1)
(21.1896 9.7008 0)
(20.7385 11.25 0)
(20.8642 10.8725 0)
(20.8642 10.8725 1)
(20.7385 11.25 1)
(20.9623 10.487 0)
(21.0322 10.0954 0)
(21.0737 9.69972 0)
(21.0866 9.30211 0)
(21.0866 9.30211 1)
(21.0737 9.69972 1)
(20.9623 10.487 1)
(21.0322 10.0954 1)
(21.1917 9.74022 0)
(21.1945 9.80077 1)
(21.1917 9.74022 1)
(21.1945 9.80077 0)
(21.1992 9.95253 1)
(21.1992 9.95253 0)
(21.2006 10.1303 1)
(21.2006 10.1303 0)
(21.1968 10.3256 1)
(21.1968 10.3256 0)
(21.1867 10.5335 1)
(21.1867 10.5335 0)
(21.1693 10.7503 1)
(21.1693 10.7503 0)
(21.1091 11.1992 1)
(21.1091 11.1992 0)
(21.0118 11.6532 0)
(20.9485 11.8766 0)
(20.875 12.0949 0)
(20.7857 12.3034 1)
(20.875 12.0949 1)
(20.9485 11.8766 1)
(21.0118 11.6532 1)
(20.7857 12.3034 0)
(20.6796 12.4988 1)
(20.6796 12.4988 0)
(20.5587 12.6787 1)
(20.5587 12.6787 0)
(20.4259 12.8407 1)
(20.4259 12.8407 0)
(20.2851 12.9825 1)
(20.2851 12.9825 0)
(20.1406 13.1014 1)
(20.1406 13.1014 0)
(19.8099 13.2506 1)
(19.8371 13.2516 1)
(19.8667 13.247 1)
(19.9984 13.193 0)
(19.9305 13.2259 0)
(19.8667 13.247 0)
(19.8371 13.2516 0)
(19.8099 13.2506 0)
(19.7822 13.2387 1)
(19.7869 13.2422 1)
(19.7978 13.2474 1)
(19.7978 13.2474 0)
(19.7869 13.2422 0)
(19.7822 13.2387 0)
(19.7781 13.2347 0)
(19.7746 13.2301 0)
(19.7717 13.2251 0)
(19.7678 13.2138 0)
(19.7663 13.2014 1)
(19.7678 13.2138 1)
(19.7717 13.2251 1)
(19.7746 13.2301 1)
(19.7781 13.2347 1)
(19.7663 13.2014 0)
(19.7687 13.1742 1)
(19.7687 13.1742 0)
(19.9533 12.8262 0)
(20.0581 12.6611 0)
(20.1673 12.4841 0)
(20.2759 12.2963 0)
(20.3802 12.0987 1)
(20.2759 12.2963 1)
(20.1673 12.4841 1)
(20.0581 12.6611 1)
(19.9533 12.8262 1)
(19.8596 12.978 1)
(19.7883 13.114 0)
(19.8596 12.978 0)
(20.3802 12.0987 0)
(20.5678 11.6805 1)
(20.5678 11.6805 0)
(19.7883 13.114 1)
(19.9305 13.2259 1)
(19.9984 13.193 1)
(19.2082 12.0201 0)
(19.2082 12.0201 1)
(19.2053 12.011 0)
(19.2053 12.011 1)
(19.1925 12.0342 0)
(19.1677 12.0563 1)
(19.1925 12.0342 1)
(19.1677 12.0563 0)
(19.1052 12.1113 1)
(19.1052 12.1113 0)
(19.0305 12.1751 1)
(19.0305 12.1751 0)
(18.9467 12.2448 1)
(18.9467 12.2448 0)
(18.7575 12.3942 1)
(18.7575 12.3942 0)
(18.5452 12.5495 1)
(18.5452 12.5495 0)
(18.3144 12.7043 1)
(18.3144 12.7043 0)
(18.0688 12.8536 1)
(18.0688 12.8536 0)
(16.9974 13.3218 0)
(16.7198 13.3775 0)
(16.4466 13.399 0)
(15.581 13.1777 1)
(15.5914 13.1915 1)
(15.6191 13.2171 1)
(17.8114 12.9937 0)
(17.5451 13.121 0)
(17.2731 13.2325 0)
(16.1852 13.3881 0)
(15.9446 13.348 0)
(15.8359 13.3183 0)
(15.7377 13.2825 0)
(15.6537 13.2407 0)
(15.6191 13.2171 0)
(15.5914 13.1915 0)
(15.581 13.1777 0)
(15.5738 13.1632 0)
(15.5716 13.1558 1)
(15.5738 13.1632 1)
(15.5716 13.1558 0)
(15.5706 13.1483 1)
(15.5706 13.1483 0)
(15.5707 13.141 0)
(15.5721 13.1339 0)
(15.5748 13.127 0)
(15.5787 13.1206 0)
(15.5893 13.1089 0)
(15.603 13.0989 1)
(15.5893 13.1089 1)
(15.5787 13.1206 1)
(15.5748 13.127 1)
(15.5721 13.1339 1)
(15.5707 13.141 1)
(15.603 13.0989 0)
(15.619 13.0902 1)
(15.619 13.0902 0)
(15.6985 13.0639 1)
(15.6985 13.0639 0)
(15.7947 13.0454 1)
(15.7947 13.0454 0)
(16.0181 13.0168 1)
(16.0181 13.0168 0)
(16.2685 12.9879 1)
(16.2685 12.9879 0)
(16.5358 12.9505 1)
(16.5358 12.9505 0)
(16.8128 12.8992 1)
(16.8128 12.8992 0)
(17.0935 12.8301 1)
(17.0935 12.8301 0)
(17.3754 12.7493 1)
(17.3754 12.7493 0)
(19.187 12.0204 1)
(17.9315 12.5679 0)
(18.1984 12.4685 0)
(18.4527 12.3655 0)
(18.6899 12.2618 0)
(18.9042 12.1618 0)
(19 12.115 0)
(19.0859 12.0722 0)
(19.1583 12.0353 0)
(19.187 12.0204 0)
(19.1583 12.0353 1)
(19.0859 12.0722 1)
(19 12.115 1)
(18.9042 12.1618 1)
(18.6899 12.2618 1)
(18.4527 12.3655 1)
(18.1984 12.4685 1)
(17.9315 12.5679 1)
(15.6537 13.2407 1)
(15.7377 13.2825 1)
(15.8359 13.3183 1)
(15.9446 13.348 1)
(16.1852 13.3881 1)
(16.4466 13.399 1)
(16.7198 13.3775 1)
(16.9974 13.3218 1)
(17.2731 13.2325 1)
(17.5451 13.121 1)
(17.8114 12.9937 1)
(18.9423 -10.5907 1)
(18.9947 -10.5914 1)
(18.9947 -10.5914 0)
(18.9423 -10.5907 0)
(18.8899 -10.5887 0)
(18.8375 -10.5852 0)
(18.8375 -10.5852 1)
(18.8899 -10.5887 1)
(20.0317 -10.5914 0)
(20.0317 -10.5914 1)
(20.2193 -10.7222 1)
(20.2304 -10.7695 1)
(20.2304 -10.7695 0)
(20.2193 -10.7222 0)
(20.1971 -10.679 0)
(20.1971 -10.679 1)
(20.1651 -10.6425 0)
(20.1651 -10.6425 1)
(20.1252 -10.6147 0)
(20.0799 -10.5973 0)
(20.0799 -10.5973 1)
(20.1252 -10.6147 1)
(20.0799 -10.9417 1)
(20.0317 -10.9476 1)
(20.0317 -10.9476 0)
(20.0799 -10.9417 0)
(20.1252 -10.9243 0)
(20.1252 -10.9243 1)
(20.1651 -10.8966 0)
(20.1651 -10.8966 1)
(20.1971 -10.86 0)
(20.2193 -10.8168 0)
(20.2193 -10.8168 1)
(20.1971 -10.86 1)
(18.9914 -10.9476 0)
(18.9914 -10.9476 1)
(18.891 -10.9451 1)
(18.8409 -10.9419 1)
(18.8409 -10.9419 0)
(18.891 -10.9451 0)
(18.9412 -10.9469 0)
(18.9412 -10.9469 1)
(4.1979 -9.83678 0)
(4.1979 -9.83678 1)
(4.01913 -9.68669 1)
(4.01295 -9.63735 1)
(4.01295 -9.63735 0)
(4.01913 -9.68669 0)
(4.03729 -9.73297 0)
(4.03729 -9.73297 1)
(4.06631 -9.77335 0)
(4.06631 -9.77335 1)
(4.10438 -9.80532 0)
(4.14917 -9.82691 0)
(4.14917 -9.82691 1)
(4.10438 -9.80532 1)
(4.01295 -9.63242 0)
(4.01295 -9.63242 1)
(4.18169 -9.43488 1)
(4.22868 -9.43304 1)
(4.22868 -9.43304 0)
(4.18169 -9.43488 0)
(4.13644 -9.44764 0)
(4.13644 -9.44764 1)
(4.09541 -9.47061 0)
(4.09541 -9.47061 1)
(4.06088 -9.50252 0)
(4.03476 -9.54162 0)
(4.01848 -9.58573 0)
(4.01848 -9.58573 1)
(4.06088 -9.50252 1)
(4.03476 -9.54162 1)
(10.824 7.87542 0)
(10.824 7.87542 1)
(12.9417 8.93167 0)
(12.8311 8.89451 0)
(12.7307 8.85999 1)
(12.8311 8.89451 1)
(12.9417 8.93167 1)
(12.7307 8.85999 0)
(12.5549 8.797 1)
(12.5549 8.797 0)
(12.4039 8.73927 1)
(12.4039 8.73927 0)
(12.2688 8.68392 1)
(12.2688 8.68392 0)
(12.0202 8.57165 1)
(12.0202 8.57165 0)
(11.7733 8.44823 1)
(11.7733 8.44823 0)
(11.5184 8.31045 1)
(11.5184 8.31045 0)
(11.2634 8.16211 1)
(11.2634 8.16211 0)
(11.0242 8.01233 1)
(11.0242 8.01233 0)
(10.9175 7.94117 1)
(10.9175 7.94117 0)
(15.5428 9.39251 0)
(15.3406 9.36902 0)
(15.1564 9.34586 0)
(14.8121 9.29766 1)
(15.1564 9.34586 1)
(15.3406 9.36902 1)
(15.5428 9.39251 1)
(16.6565 9.49061 0)
(16.4313 9.47396 0)
(16.2352 9.45845 0)
(16.0635 9.44391 0)
(15.912 9.43019 0)
(15.7768 9.41714 0)
(14.8121 9.29766 0)
(13.128 8.9761 1)
(14.4612 9.24222 0)
(14.272 9.20996 0)
(14.0688 9.17352 0)
(13.8456 9.13111 0)
(13.5927 9.07971 0)
(13.4512 9.04936 0)
(13.297 9.01506 0)
(13.128 8.9761 0)
(13.297 9.01506 1)
(13.4512 9.04936 1)
(13.5927 9.07971 1)
(13.8456 9.13111 1)
(14.0688 9.17352 1)
(14.272 9.20996 1)
(14.4612 9.24222 1)
(15.7768 9.41714 1)
(15.912 9.43019 1)
(16.0635 9.44391 1)
(16.2352 9.45845 1)
(16.4313 9.47396 1)
(16.6565 9.49061 1)
(16.916 9.50859 1)
(16.916 9.50859 0)
(17.5643 9.55212 0)
(17.5643 9.55212 1)
(18.3619 9.59056 1)
(18.7611 9.59847 1)
(18.7611 9.59847 0)
(18.3619 9.59056 0)
(17.9629 9.5751 0)
(17.9629 9.5751 1)
(18.8309 9.21029 1)
(18.7812 9.19929 1)
(18.7812 9.19929 0)
(18.8309 9.21029 0)
(18.8762 9.23346 0)
(18.8762 9.23346 1)
(18.9142 9.26733 0)
(18.9142 9.26733 1)
(18.9424 9.30968 0)
(18.959 9.35779 0)
(18.9629 9.40853 0)
(18.9539 9.45862 0)
(18.9326 9.50481 0)
(18.9002 9.54412 0)
(18.859 9.57401 0)
(18.8116 9.59252 0)
(18.8116 9.59252 1)
(18.9424 9.30968 1)
(18.959 9.35779 1)
(18.9629 9.40853 1)
(18.9539 9.45862 1)
(18.9326 9.50481 1)
(18.9002 9.54412 1)
(18.859 9.57401 1)
(18.763 9.17937 0)
(18.7636 9.18426 0)
(18.7653 9.18885 0)
(18.7653 9.18885 1)
(18.7636 9.18426 1)
(18.763 9.17937 1)
(18.7682 9.19287 0)
(18.7719 9.19606 0)
(18.7763 9.19825 0)
(18.7763 9.19825 1)
(18.7719 9.19606 1)
(18.7682 9.19287 1)
(18.763 -9.18299 0)
(18.763 -9.18299 1)
(18.7811 -9.20291 0)
(18.7763 -9.20186 0)
(18.7719 -9.19967 0)
(18.7719 -9.19967 1)
(18.7763 -9.20186 1)
(18.7811 -9.20291 1)
(18.7682 -9.19648 0)
(18.7653 -9.19246 0)
(18.7636 -9.18787 0)
(18.7636 -9.18787 1)
(18.7653 -9.19246 1)
(18.7682 -9.19648 1)
(18.8114 -9.59612 1)
(18.7609 -9.60207 1)
(18.7609 -9.60207 0)
(18.8114 -9.59612 0)
(18.8588 -9.57762 0)
(18.8588 -9.57762 1)
(18.9 -9.54776 0)
(18.9 -9.54776 1)
(18.9323 -9.50846 0)
(18.9537 -9.46229 0)
(18.9627 -9.41222 0)
(18.9588 -9.36149 0)
(18.9422 -9.31339 0)
(18.914 -9.27103 0)
(18.8761 -9.23715 0)
(18.8308 -9.21394 0)
(18.8308 -9.21394 1)
(18.9323 -9.50846 1)
(18.9537 -9.46229 1)
(18.9627 -9.41222 1)
(18.9588 -9.36149 1)
(18.9422 -9.31339 1)
(18.914 -9.27103 1)
(18.8761 -9.23715 1)
(17.8948 -9.57532 1)
(17.4623 -9.54863 1)
(17.4623 -9.54863 0)
(17.8948 -9.57532 0)
(18.3277 -9.59313 0)
(18.3277 -9.59313 1)
(16.6357 -9.48912 0)
(16.6357 -9.48912 1)
(14.2386 -9.20411 1)
(14.0398 -9.16817 1)
(13.8214 -9.12635 1)
(13.122 -8.97469 0)
(13.286 -9.01258 0)
(13.4361 -9.04606 0)
(13.5741 -9.0758 0)
(13.8214 -9.12635 0)
(14.0398 -9.16817 0)
(14.2386 -9.20411 0)
(14.4236 -9.23594 0)
(14.7657 -9.29068 1)
(14.4236 -9.23594 1)
(14.7657 -9.29068 0)
(15.0965 -9.33794 1)
(15.0965 -9.33794 0)
(15.2701 -9.36037 1)
(15.2701 -9.36037 0)
(15.4575 -9.38285 1)
(15.4575 -9.38285 0)
(16.0659 -9.44413 1)
(15.919 -9.43085 1)
(15.7875 -9.41821 1)
(15.6684 -9.40607 0)
(15.7875 -9.41821 0)
(15.919 -9.43085 0)
(16.0659 -9.44413 0)
(16.2318 -9.45817 0)
(16.4202 -9.47311 1)
(16.2318 -9.45817 1)
(16.4202 -9.47311 0)
(15.6684 -9.40607 1)
(13.5741 -9.0758 1)
(13.4361 -9.04606 1)
(13.286 -9.01258 1)
(13.122 -8.97469 1)
(12.9417 -8.93168 1)
(12.9417 -8.93168 0)
(10.824 -7.87543 0)
(10.9175 -7.94117 0)
(11.0242 -8.01233 1)
(10.9175 -7.94117 1)
(10.824 -7.87543 1)
(11.0242 -8.01233 0)
(11.2634 -8.16211 1)
(11.2634 -8.16211 0)
(11.5184 -8.31046 1)
(11.5184 -8.31046 0)
(11.7733 -8.44824 0)
(12.0202 -8.57165 0)
(12.2688 -8.68393 0)
(12.4039 -8.73928 0)
(12.5549 -8.797 0)
(12.7307 -8.85999 0)
(12.8311 -8.89451 0)
(12.8311 -8.89451 1)
(12.0202 -8.57165 1)
(11.7733 -8.44824 1)
(12.2688 -8.68393 1)
(12.4039 -8.73928 1)
(12.5549 -8.797 1)
(12.7307 -8.85999 1)
)

// edges

584
(
(12 13)
(14 15)
(15 16)
(17 12)
(16 18)
(19 17)
(18 20)
(20 21)
(21 22)
(22 23)
(24 25)
(26 19)
(27 26)
(25 27)
(28 14)
(13 29)
(30 31)
(32 33)
(33 34)
(35 30)
(34 36)
(37 35)
(36 38)
(38 39)
(39 28)
(29 40)
(41 37)
(40 41)
(42 32)
(31 43)
(44 45)
(46 47)
(45 48)
(48 42)
(43 49)
(49 46)
(50 51)
(52 53)
(53 54)
(55 50)
(47 55)
(54 44)
(56 57)
(58 59)
(59 60)
(61 56)
(60 62)
(63 61)
(62 52)
(51 63)
(0 1)
(64 0)
(1 65)
(65 66)
(67 64)
(66 68)
(69 67)
(68 58)
(57 69)
(70 71)
(72 73)
(71 74)
(74 75)
(75 76)
(76 77)
(77 78)
(0 79)
(79 80)
(81 72)
(82 81)
(83 82)
(80 83)
(78 1)
(10 70)
(73 11)
(3 2)
(2 10)
(11 3)
(84 85)
(86 87)
(87 88)
(88 2)
(3 89)
(89 84)
(23 86)
(85 24)
(4 5)
(90 4)
(5 91)
(91 92)
(93 90)
(94 93)
(92 95)
(96 97)
(98 99)
(97 100)
(100 101)
(101 102)
(102 103)
(4 104)
(104 105)
(106 98)
(107 106)
(105 107)
(103 5)
(95 108)
(109 110)
(110 94)
(108 111)
(112 109)
(111 113)
(114 112)
(113 115)
(116 114)
(115 117)
(118 116)
(117 119)
(120 118)
(119 121)
(122 120)
(121 123)
(124 125)
(125 126)
(127 128)
(128 129)
(129 130)
(123 124)
(126 131)
(132 127)
(131 133)
(134 132)
(133 135)
(136 134)
(135 137)
(138 136)
(137 139)
(140 138)
(139 141)
(142 143)
(143 144)
(141 145)
(145 146)
(146 147)
(147 148)
(148 149)
(150 151)
(151 152)
(149 153)
(153 154)
(154 155)
(155 156)
(156 157)
(157 158)
(158 159)
(160 161)
(161 162)
(162 163)
(163 164)
(164 150)
(159 165)
(166 160)
(165 167)
(168 169)
(169 170)
(170 171)
(172 173)
(173 174)
(174 175)
(175 176)
(176 177)
(167 178)
(178 179)
(179 168)
(171 180)
(181 172)
(180 182)
(182 96)
(99 181)
(177 183)
(183 166)
(152 142)
(144 184)
(184 185)
(185 140)
(130 122)
(6 186)
(7 6)
(187 7)
(188 6)
(7 189)
(186 190)
(191 192)
(192 187)
(190 193)
(194 191)
(193 195)
(196 194)
(195 197)
(198 196)
(197 199)
(200 198)
(199 201)
(202 200)
(201 203)
(204 202)
(203 205)
(206 204)
(205 207)
(208 209)
(209 210)
(211 212)
(212 213)
(207 214)
(214 215)
(215 216)
(216 208)
(210 217)
(217 218)
(218 219)
(219 220)
(220 221)
(221 222)
(222 223)
(223 224)
(224 225)
(226 227)
(227 211)
(225 228)
(229 226)
(228 230)
(230 231)
(231 232)
(232 233)
(233 234)
(234 235)
(236 237)
(237 238)
(238 239)
(239 240)
(240 241)
(235 242)
(243 236)
(242 244)
(245 243)
(244 246)
(247 245)
(246 248)
(249 247)
(248 250)
(251 249)
(250 252)
(253 251)
(252 254)
(255 253)
(254 256)
(257 255)
(256 258)
(259 257)
(258 260)
(189 261)
(260 262)
(262 263)
(263 264)
(264 265)
(265 266)
(266 267)
(267 268)
(268 269)
(269 270)
(270 188)
(261 271)
(271 272)
(272 273)
(273 274)
(274 275)
(275 276)
(276 277)
(277 278)
(278 259)
(241 229)
(213 279)
(279 280)
(280 281)
(281 282)
(282 283)
(283 284)
(284 285)
(285 286)
(286 287)
(287 288)
(288 289)
(289 206)
(290 291)
(292 293)
(293 294)
(294 295)
(296 297)
(297 290)
(298 292)
(291 299)
(300 301)
(302 303)
(303 304)
(305 300)
(304 306)
(307 305)
(306 308)
(308 309)
(309 298)
(299 310)
(311 307)
(310 311)
(312 313)
(314 315)
(315 316)
(317 312)
(316 318)
(319 317)
(318 320)
(320 321)
(321 302)
(301 322)
(323 319)
(322 323)
(324 314)
(313 325)
(326 327)
(328 329)
(329 330)
(330 324)
(325 331)
(331 326)
(332 328)
(327 333)
(334 335)
(336 337)
(337 338)
(339 334)
(338 340)
(341 339)
(340 342)
(342 343)
(343 332)
(333 344)
(345 341)
(344 345)
(346 336)
(335 347)
(348 349)
(350 351)
(351 352)
(353 348)
(352 354)
(355 353)
(354 356)
(356 357)
(357 358)
(358 346)
(347 359)
(360 355)
(361 360)
(359 361)
(295 350)
(349 296)
(362 8)
(8 9)
(9 363)
(364 365)
(366 367)
(367 368)
(365 369)
(370 366)
(369 371)
(372 370)
(371 373)
(374 372)
(373 375)
(376 374)
(375 377)
(378 376)
(377 379)
(380 378)
(379 381)
(382 380)
(381 383)
(384 382)
(383 385)
(386 384)
(385 387)
(387 362)
(363 386)
(388 389)
(389 390)
(391 392)
(392 393)
(393 394)
(395 396)
(396 397)
(397 398)
(398 399)
(399 400)
(400 388)
(390 401)
(368 402)
(401 403)
(403 404)
(404 405)
(405 406)
(406 407)
(407 408)
(408 409)
(409 410)
(410 364)
(402 411)
(411 412)
(412 413)
(413 414)
(414 415)
(415 416)
(416 417)
(417 391)
(394 418)
(418 419)
(419 420)
(420 421)
(421 422)
(422 423)
(423 424)
(425 395)
(426 425)
(424 427)
(428 429)
(430 431)
(431 432)
(432 426)
(427 433)
(433 428)
(434 435)
(436 437)
(437 438)
(439 434)
(438 440)
(441 439)
(440 442)
(442 443)
(443 444)
(444 445)
(445 446)
(446 447)
(447 448)
(448 449)
(449 430)
(429 450)
(451 441)
(452 451)
(453 452)
(454 453)
(455 454)
(456 455)
(457 456)
(450 457)
(458 459)
(459 460)
(461 462)
(462 463)
(460 464)
(464 465)
(466 436)
(465 466)
(435 467)
(467 468)
(468 469)
(469 461)
(470 458)
(463 471)
(472 473)
(473 474)
(475 476)
(476 477)
(474 478)
(478 479)
(480 470)
(479 480)
(471 481)
(481 482)
(482 483)
(483 475)
(484 485)
(486 487)
(487 488)
(489 484)
(488 490)
(491 489)
(490 492)
(492 493)
(493 494)
(494 495)
(495 496)
(496 497)
(497 498)
(498 499)
(499 472)
(477 500)
(501 491)
(502 501)
(503 502)
(504 503)
(505 504)
(506 505)
(507 506)
(500 507)
(508 509)
(510 511)
(511 512)
(512 486)
(485 513)
(513 508)
(514 510)
(509 515)
(516 517)
(517 518)
(519 520)
(520 521)
(521 522)
(522 523)
(523 524)
(524 525)
(525 526)
(527 528)
(528 516)
(526 529)
(530 527)
(529 531)
(532 530)
(531 533)
(534 532)
(533 535)
(536 537)
(537 538)
(535 539)
(539 540)
(540 541)
(541 542)
(542 543)
(544 545)
(545 536)
(543 546)
(515 544)
(546 514)
(538 547)
(547 534)
(518 548)
(548 549)
(549 550)
(550 551)
(551 552)
(553 519)
(554 555)
(556 557)
(557 558)
(555 559)
(560 556)
(559 561)
(562 560)
(561 563)
(563 564)
(564 565)
(565 566)
(566 567)
(567 568)
(568 569)
(569 570)
(570 553)
(552 571)
(572 573)
(573 562)
(574 572)
(575 574)
(576 575)
(577 576)
(571 577)
(8 554)
(558 9)
(11 10)
)

// concaveStart mixedStart nonFeatureStart
10 10 12
// internalStart flatStart openStart multipleStart
583 584 584 584
// normals

1114
(
(-0.993067 -0.117549 -0)
(0 0 1)
(-0.993067 -0.117549 -0)
(0 0 -1)
(-0.938176 -0.346157 0)
(0 0 -1)
(-0.938176 -0.346157 0)
(-0 -0 1)
(-0.831438 -0.555617 0)
(0 0 -1)
(-0.831438 -0.555617 0)
(0 0 1)
(-0.678732 -0.734387 -0)
(0 0 -1)
(-0.488539 -0.872542 -0)
(0 0 -1)
(-0.271299 -0.962495 -0)
(0 0 -1)
(-0.0391252 -0.999234 -0)
(-0.0391252 -0.999234 -0)
(0 0 1)
(-0.678732 -0.734387 0)
(0 0 1)
(-0.488539 -0.872542 0)
(-0 -0 1)
(-0.271299 -0.962495 0)
(-1 0 0)
(0 0 -1)
(-1 0 0)
(0 0 1)
(-0.198615 0.980078 0)
(-0 0 1)
(-0.198615 0.980078 0)
(0 0 -1)
(-0.434243 0.900796 0)
(-0.434243 0.900796 0)
(-0.643022 0.765847 0)
(0 0 -1)
(-0.643022 0.765847 0)
(0 0 1)
(-0.812063 0.58357 0)
(0 -0 -1)
(-0.930923 0.365215 0)
(0 0 -1)
(-0.992244 0.124304 0)
(0 0 -1)
(-0.992244 0.124304 0)
(0 0 1)
(-0.812063 0.58357 0)
(0 0 1)
(-0.930923 0.365215 0)
(-0 0 1)
(-0.0752578 0.997164 0)
(-0 0 -1)
(-0.0752578 0.997164 0)
(0 0 1)
(0.298429 0.954432 -0)
(0 -0 -1)
(0.298429 0.954432 0)
(0 0 1)
(0.151101 0.988518 0)
(0 0 -1)
(0.000383075 1 0)
(0.000383075 1 0)
(0 0 1)
(0.151101 0.988518 0)
(0.597805 0.801642 0)
(0 0 1)
(0.597805 0.801642 0)
(-0 -0 -1)
(0.510618 0.859808 0)
(0 0 -1)
(0.510618 0.859808 -0)
(0 0 1)
(0.417942 0.908474 -0)
(0 0 1)
(0.417942 0.908474 0)
(0 0 -1)
(0.979705 0.200445 0)
(0 0 1)
(0.979705 0.200445 0)
(0 0 -1)
(0.931985 0.362497 0)
(0 0 -1)
(0.931985 0.362497 -0)
(0 0 1)
(0.857682 0.51418 -0)
(0 0 -1)
(0.857682 0.51418 0)
(-0 0 1)
(0.758877 0.651233 0)
(0 0 -1)
(0.758877 0.651233 0)
(0 0 1)
(0.958485 -0.285143 0)
(-0.980316 0.197437 0)
(0 0 1)
(0.958485 -0.285143 0)
(0 -0 -1)
(0.984075 -0.177755 0)
(0 0 -1)
(0.984075 -0.177755 0)
(0 0 1)
(0.997674 -0.0681731 0)
(0 0 -1)
(0.997674 -0.0681731 0)
(0 0 1)
(0.999109 0.042199 0)
(0 0 -1)
(0.999109 0.042199 0)
(0 0 1)
(-0.652831 -0.757504 0)
(0 0 -1)
(-0.652831 -0.757504 0)
(0 0 1)
(-0.775597 -0.631228 -0)
(0 0 -1)
(-0.874315 -0.485358 -0)
(0 0 -1)
(-0.945922 -0.324393 -0)
(0 0 -1)
(-0.988169 -0.153368 -0)
(0 0 -1)
(-0.99975 0.0223802 0)
(0 0 -1)
(-0.980316 0.197437 0)
(-0.99975 0.0223802 0)
(0 0 1)
(-0.775597 -0.631228 0)
(0 0 1)
(-0.874315 -0.485358 0)
(0 0 1)
(-0.945922 -0.324393 0)
(0 0 1)
(-0.988169 -0.153368 0)
(0 0 1)
(-0.535114 -0.84478 0)
(0 0 -1)
(-0.535114 -0.84478 0)
(0 -0 1)
(0.844779 -0.535115 0)
(0.0640008 -0.99795 0)
(0 0 -1)
(0.844779 -0.535115 0)
(0 -0 1)
(0.0759781 -0.997109 0)
(0 0 1)
(0.0759781 -0.997109 0)
(-0 0 -1)
(0.0708955 -0.997484 0)
(0 0 -1)
(0.0640008 -0.99795 0)
(0.0708955 -0.997484 0)
(0 0 1)
(0.0786254 -0.996904 0)
(0 0 -1)
(0.0786254 -0.996904 0)
(0 0 1)
(0.979711 -0.200415 0)
(-0.999198 0.0400444 0)
(0 0 1)
(0.979711 -0.200415 0)
(0 0 -1)
(0.989012 -0.147837 0)
(0 0 -1)
(0.989012 -0.147837 0)
(-0 0 1)
(0.995494 -0.0948282 0)
(0 -0 1)
(0.995494 -0.0948282 0)
(0 0 -1)
(-0.948801 -0.315873 0)
(0 0 -1)
(-0.948801 -0.315873 0)
(0 -0 1)
(-0.969144 -0.246493 -0)
(0 0 -1)
(-0.98441 -0.17589 -0)
(0 0 -1)
(-0.994541 -0.104345 -0)
(-0 0 -1)
(-0.999481 -0.0322243 -0)
(0 0 -1)
(-0.999198 0.0400444 0)
(-0.999481 -0.0322243 -0)
(0 -0 1)
(-0.969144 -0.246493 0)
(0 -0 1)
(-0.98441 -0.17589 0)
(0 0 1)
(-0.994541 -0.104345 0)
(0 0 1)
(0.998612 -0.0526704 0)
(-0 0 -1)
(0.998947 -0.045878 4.09998e-05)
(0 0 1)
(0.998612 -0.0526704 -1.23042e-05)
(0 -0 1)
(0.998947 -0.045878 -4.09998e-05)
(0 0 -1)
(0.999523 -0.030892 0.000189862)
(0 0 1)
(0.999523 -0.030892 -0.000189862)
(0 0 -1)
(0.99997 -0.00770413 0.000743412)
(0 -0 1)
(0.99997 -0.00770413 -0.000743412)
(0 0 -1)
(0.999818 0.0190368 0.00127876)
(0 0 1)
(0.999818 0.0190368 -0.00127876)
(0 0 -1)
(0.998821 0.0485278 0.00158064)
(0 0 1)
(0.998821 0.0485278 -0.00158064)
(0 -0 -1)
(0.996759 0.0804248 0.00180542)
(0 0 1)
(0.996759 0.0804248 -0.00180542)
(-0 0 -1)
(0.991121 0.132781 0.00692974)
(0 0 1)
(0.991121 0.132781 -0.00692974)
(0 0 -1)
(0.962071 0.272799 -0.000648888)
(0 0 -1)
(0.947683 0.319214 0.000272277)
(0 -0 -1)
(0.919302 0.393545 0.00244486)
(0 0 1)
(0.947683 0.319214 -0.000272277)
(0 0 1)
(0.962071 0.272799 0.000648888)
(0 0 1)
(0.977767 0.209497 -0.00912055)
(0 0 -1)
(0.919302 0.393545 -0.00244486)
(0 0 -1)
(0.878772 0.477223 0.0042889)
(0 0 1)
(0.878772 0.477223 -0.0042889)
(0 0 -1)
(0.829936 0.557835 0.00506294)
(0 0 1)
(0.829936 0.557835 -0.00506294)
(0 0 -1)
(0.773511 0.633765 0.00478879)
(0 0 1)
(0.773511 0.633765 -0.00478879)
(-0 0 -1)
(0.709504 0.704691 0.00365583)
(0 0 1)
(0.709504 0.704691 -0.00365583)
(-0 0 -1)
(0.635606 0.772012 0.00173476)
(0 -0 1)
(0.635606 0.772012 -0.00173476)
(-0 0 -1)
(-0.0357015 0.999362 0.00120073)
(0 0 1)
(0.153381 0.988166 -0.00146146)
(0 0 1)
(0.541282 0.840832 -0.00381012)
(-0 0 -1)
(0.435778 0.900054 0.000931518)
(-0 0 -1)
(0.314261 0.949336 -0.00140119)
(0 -0 -1)
(0.153381 0.988166 0.0014463)
(-0 0 -1)
(-0.0357015 0.999362 -0.00120073)
(0 0 -1)
(-0.593249 0.805019 8.48827e-05)
(0 0 1)
(-0.439214 0.898382 -0.000221495)
(-0 0 1)
(-0.252391 0.967625 -0.000244914)
(0 0 -1)
(-0.439214 0.898382 0.000221495)
(0 0 -1)
(-0.593249 0.805019 -8.48827e-05)
(0 -0 -1)
(-0.695683 0.718349 0.000662021)
(0 0 -1)
(-0.790335 0.612675 -0.0001996)
(0 -0 -1)
(-0.867838 0.496847 0.000554871)
(0 0 -1)
(-0.946278 0.323354 -0.000691454)
(0 0 -1)
(-0.992351 0.123445 0.000514187)
(-0 0 1)
(-0.946278 0.323354 0.000691454)
(0 -0 1)
(-0.867838 0.496847 -0.000554871)
(0 0 1)
(-0.790335 0.612675 0.0001996)
(-0 0 1)
(-0.695683 0.718349 -0.000662021)
(0 0 1)
(-0.992351 0.123445 -0.000514187)
(0 0 -1)
(-0.99593 -0.0901196 0.00152383)
(-0.99593 -0.0901196 -0.00152383)
(-0.844295 -0.535879 0.000201756)
(0 -0 -1)
(-0.851177 -0.524877 -0.0015168)
(0 -0 -1)
(-0.865604 -0.500727 0.00135432)
(0 0 -1)
(-0.884316 -0.466886 -0.00129209)
(0 -0 1)
(-0.865604 -0.500727 -0.00135432)
(0 -0 1)
(-0.851176 -0.524877 0.00173064)
(0 0 1)
(-0.844295 -0.535879 -0.000201756)
(0 0 1)
(-0.85082 -0.525457 0.000510612)
(0 0 1)
(-0.95116 -0.308691 -0.00196751)
(0 -0 -1)
(-0.88564 -0.464353 -0.00428392)
(0 0 -1)
(-0.85082 -0.525457 -0.000505164)
(0 -0 -1)
(-0.884316 -0.466886 0.00129209)
(0 0 -1)
(-0.912459 -0.409131 -0.00548192)
(0 0 1)
(-0.912459 -0.409131 0.00548192)
(0 0 -1)
(-0.929537 -0.368729 -0)
(0 0 -1)
(-0.929537 -0.368729 -0)
(0 0 1)
(-0.88564 -0.464353 0.00428392)
(0 0 1)
(-0.95116 -0.308691 0.00196751)
(0 0 1)
(-0.252391 0.967625 0.000244914)
(0 0 1)
(0.314261 0.949336 0.00140119)
(0 0 1)
(0.435778 0.900054 -0.000931518)
(0 -0 1)
(0.541282 0.840832 0.00381012)
(0 -0 1)
(0.977767 0.209497 0.00912055)
(0 0 1)
(0.683517 0.729934 -0)
(0 0 -1)
(0.683517 0.729934 -0)
(-0.453396 -0.891309 0)
(0 0 1)
(-0.453396 -0.891309 0)
(0.668526 0.743689 -0)
(0 0 -1)
(0.665864 0.746073 4.39593e-05)
(0 0 1)
(0.668526 0.743689 -2.83333e-05)
(0 0 1)
(0.665864 0.746073 -4.39593e-05)
(0 0 -1)
(0.659859 0.751389 0.000199696)
(-0 0 1)
(0.659859 0.751389 -0.000199696)
(0 0 -1)
(0.650172 0.759787 0.000313282)
(0 0 1)
(0.650172 0.759787 -0.000313282)
(0 0 -1)
(0.639092 0.76913 1.77689e-05)
(0 0 1)
(0.639092 0.76913 -1.77689e-05)
(0 0 -1)
(0.619628 0.784893 0.00191519)
(0 0 1)
(0.619628 0.784893 -0.00191519)
(0 0 -1)
(0.590407 0.807102 0.00255098)
(-0 0 1)
(0.590407 0.807102 -0.00255098)
(0 0 -1)
(0.557055 0.830471 0.0027074)
(-0 0 1)
(0.557055 0.830471 -0.0027074)
(0 0 -1)
(0.519676 0.854361 0.0021955)
(0 0 1)
(0.519676 0.854361 -0.0021955)
(0 0 -1)
(0.196575 0.980475 -0.0051963)
(0 0 -1)
(0.0784101 0.996887 -0.00821268)
(0 0 -1)
(-0.799522 0.600637 0.000228667)
(0 0 1)
(-0.679303 0.733858 -0.000422657)
(0 0 1)
(0.477916 0.878405 -0.00112966)
(0 -0 -1)
(0.431311 0.902199 -0.00285909)
(-0 0 -1)
(0.379324 0.925255 -0.00407425)
(0 0 -1)
(0.308166 0.951301 -0.00779169)
(0 -0 -1)
(-0.0417001 0.999119 -0.00478538)
(0 0 -1)
(-0.164194 0.986397 -0.00777738)
(0 0 -1)
(-0.263952 0.964534 -0.0017269)
(0 -0 -1)
(-0.342285 0.939593 -0.00227125)
(0 -0 -1)
(-0.446102 0.89498 -0.00196928)
(0 0 -1)
(-0.561345 0.827581 -0.000636429)
(0 -0 -1)
(-0.679303 0.733858 0.000422657)
(0 -0 -1)
(-0.799522 0.600637 -0.000228667)
(0 0 -1)
(-0.895051 0.445962 -0.000832134)
(0 -0 -1)
(-0.959773 0.280777 0.000223536)
(0 0 1)
(-0.895051 0.445962 0.000832134)
(-0 0 1)
(-0.959773 0.280777 -0.000223536)
(0 0 -1)
(-0.989889 0.141846 -0.00032536)
(0 0 1)
(-0.989889 0.141846 0.00032536)
(0 0 -1)
(-0.999793 -0.0203405 -0.000207806)
(0 0 -1)
(-0.98054 -0.196318 -0.000261398)
(0 0 -1)
(-0.9306 -0.366038 0.000356813)
(0 0 -1)
(-0.858464 -0.512873 -0.000203537)
(0 0 -1)
(-0.738688 -0.674047 -0.000869101)
(0 0 -1)
(-0.591491 -0.806312 0.000301671)
(0 0 1)
(-0.738688 -0.674047 0.000869101)
(-0.858464 -0.512873 0.000203537)
(0 0 1)
(-0.9306 -0.366038 -0.000356813)
(0 0 1)
(-0.98054 -0.196318 0.000261398)
(-0 -0 1)
(-0.591491 -0.806312 -0.000301671)
(-0.478117 -0.878296 0.000443594)
(-0 -0 1)
(-0.478117 -0.878296 -0.000443594)
(0 0 -1)
(-0.313758 -0.949496 0.00363796)
(0 0 1)
(-0.313758 -0.949496 -0.00363796)
(0 0 -1)
(-0.189415 -0.981897 0.000262219)
(0 0 1)
(-0.189415 -0.981897 -0.000262219)
(0 0 -1)
(-0.126978 -0.991903 0.00203462)
(0 0 1)
(-0.126978 -0.991903 -0.00203462)
(0 0 -1)
(-0.114475 -0.993426 3.32383e-05)
(0 -0 1)
(-0.114475 -0.993426 -3.32383e-05)
(0 0 -1)
(-0.138423 -0.990373 -0.000260051)
(-0 -0 1)
(-0.138423 -0.990373 0.000260051)
(0 0 -1)
(-0.182341 -0.983235 -0.00113199)
(-0 -0 1)
(-0.182341 -0.983235 0.00113199)
(0 0 -1)
(-0.238798 -0.971067 -0.00218658)
(0 -0 1)
(-0.238798 -0.971067 0.00218658)
(0 0 -1)
(-0.275804 -0.961213 -0.000852531)
(-0 -0 1)
(-0.275804 -0.961213 0.000852531)
(0 0 -1)
(-0.45823 -0.888834 -0)
(0 0 1)
(-0.310001 -0.950714 0.00650029)
(-0 0 -1)
(-0.349009 -0.937117 0.00203173)
(-0 0 -1)
(-0.37537 -0.926873 0.00183858)
(-0 0 -1)
(-0.400514 -0.91629 0.0014085)
(0 0 -1)
(-0.423138 -0.906065 0.000861303)
(0 0 -1)
(-0.438232 -0.898862 0.000228364)
(0 0 -1)
(-0.446713 -0.894677 0.000127812)
(-0 0 -1)
(-0.454189 -0.890906 3.9232e-05)
(-0 0 -1)
(-0.45882 -0.888529 1.29991e-05)
(-0 0 -1)
(-0.45823 -0.888834 1.68638e-05)
(-0 0 -1)
(-0.45882 -0.888529 -1.29991e-05)
(0 0 1)
(-0.454189 -0.890906 -3.9232e-05)
(0 -0 1)
(-0.446713 -0.894677 -0.000127812)
(0 0 1)
(-0.438232 -0.898862 -0.000228364)
(-0 -0 1)
(-0.423138 -0.906065 -0.000861303)
(0 0 1)
(-0.400514 -0.91629 -0.0014085)
(-0 -0 1)
(-0.37537 -0.926873 -0.00183858)
(0 -0 1)
(-0.349009 -0.937117 -0.00203173)
(0 -0 1)
(-0.310001 -0.950714 -0.00650029)
(0 0 1)
(-0.999793 -0.0203405 0.000207806)
(0 0 1)
(-0.561345 0.827581 0.000636429)
(-0 0 1)
(-0.446102 0.89498 0.00196928)
(0 0 1)
(-0.342285 0.939593 0.00227125)
(0 0 1)
(-0.263952 0.964534 0.0017269)
(-0 0 1)
(-0.164194 0.986397 0.00777738)
(0 -0 1)
(-0.0417001 0.999119 0.00478538)
(0 0 1)
(0.0784101 0.996887 0.00821268)
(0 0 1)
(0.196575 0.980475 0.0051963)
(0 0 1)
(0.308166 0.951301 0.00779169)
(0 0 1)
(0.379324 0.925255 0.00407425)
(0 0 1)
(0.431311 0.902199 0.00285909)
(-0 0 1)
(0.477916 0.878405 0.00112966)
(-0 0 1)
(0.0131424 0.999914 0)
(0 0 1)
(0.0131424 0.999914 0)
(0 0 -1)
(0.0392596 0.999229 0)
(0 0 -1)
(0.0655552 0.997849 0)
(0 0 -1)
(0.0655552 0.997849 0)
(0 -0 1)
(0.0392596 0.999229 0)
(0 0 1)
(0 1 -0)
(0 0 -1)
(0 1 0)
(-0 0 1)
(0.97331 0.229494 0)
(0 0 1)
(0.97331 0.229494 0)
(0 0 -1)
(0.889216 0.457488 0)
(0 0 -1)
(0.889216 0.457488 -0)
(0 0 1)
(0.752787 0.658264 -0)
(0 0 -1)
(0.752787 0.658264 0)
(0 0 1)
(0.571864 0.820348 0)
(0 0 -1)
(0.357188 0.934033 0)
(-0 -0 -1)
(0.121459 0.992596 0)
(0.121459 0.992596 0)
(0 0 1)
(0.571864 0.820348 0)
(0 0 1)
(0.357188 0.934033 0)
(0.121459 -0.992596 0)
(0 0 1)
(0.121459 -0.992596 0)
(0 0 -1)
(0.357188 -0.934033 0)
(0.357188 -0.934033 0)
(0.571864 -0.820348 0)
(-0 0 -1)
(0.571864 -0.820348 0)
(0 -0 1)
(0.752693 -0.658371 0)
(0 0 -1)
(0.889261 -0.4574 0)
(0 0 -1)
(0.973299 -0.229543 0)
(0 0 -1)
(0.973299 -0.229543 0)
(0 0 1)
(0.752693 -0.658371 0)
(0 0 1)
(0.889261 -0.4574 0)
(0 0 1)
(0 -1 0)
(0 0 -1)
(0 -1 0)
(0 -0 1)