/*--------------------------------*- C++ -*----------------------------------*\
| =========                 |                                                 |
| \\      /  F ield         | OpenFOAM: The Open Source CFD Toolbox           |
|  \\    /   O peration     | Version:  2.3.0                                 |
|   \\  /    A nd           | Web:      www.OpenFOAM.org                      |
|    \\/     M anipulation  |                                                 |
\*---------------------------------------------------------------------------*/
FoamFile
{
    version     2.0;
    format      ascii;
    class       dictionary;
    object      blockMeshDict;
}

// * * * * * * * * * * * * * * * * * * * * * * * * * * * * * * * * * * * * * //

convertToMeters 1;

vertices
(
    (-40   -31  0)
    ( 100  -31  0)
    ( 100   33  0)
    (-40    33  0)
    (-40   -31   1)
    ( 100  -31   1)
    ( 100   33   1)
    (-40    33   1)
);

blocks
(
    hex (0 1 2 3 4 5 6 7) (70 32 1) simpleGrading (1 1 1)
);

edges
(
);

boundary
(
    inlet
    {
        type patch;
        faces
        (
            (4 7 3 0)
        );
    }

    outlet
    {
        type patch;
        faces
        (

            (6 5 1 2)
        );
    }

    frontAndBack
    {
        type symmetry;
        faces
        (
            (3 7 6 2)
            (5 4 0 1)
        );
    }

    upDown
    {
        type patch;
        faces
        (
            (4 5 6 7)
            (0 3 2 1)

        );
    }


);

mergePatchPairs
(
);

// ************************************************************************* //
